powerflow/autotest/test_triplex_billing_stub.glm
// glm to validate HOURLY billing with a stubauction driving the bill price;
//
// currently does not pass due to synchronization issues of monthly_bill
// and asserts; recorded values match up with expected;

// files used: stub_bill_price.player, stub_nofee_bill_value.player

// author: alek332

clock {
     timezone CST+6CDT;
     timestamp '2006-01-01 00:00:00';
     stoptime '2006-12-31 00:00:00';
}

#set profiler=1;
#set double_format=%+.12lg
#set randomseed=10;
#set minimum_timestep=60;
#set relax_naming_rules=1

module assert;
module tape;
module powerflow {
     solver_method NR;
}
module market;

object stubauction {
     name STUB2;
     unit price;
     period 3600;
     // This player sends a signal to the HOURLY meters in $/kW-hr
object player {
          parent STUB2;
          file ../stub_bill_price.player;
          loop 100;
          property next.P;
     };
}


object node {
     bustype SWING;
     name ROOT;
     phases ABCN;
     nominal_voltage 7200;
}

object overhead_line_conductor {
      name CU_AL;
      geometric_mean_radius 0.4 cm;
      resistance 0.1 ohm/km;
}

object line_spacing {
      name HORIZONTAL_ABCN;
      distance_AB 4 ft;
      distance_BC 4 ft;
      distance_AC 4 ft;
      distance_AN 6 ft;
      distance_BN 6 ft;
      distance_CN 6 ft;
}

object line_configuration {
      name OHL_config;
      conductor_A CU_AL;
      conductor_B CU_AL;
      conductor_C CU_AL;
      conductor_N CU_AL;
      spacing HORIZONTAL_ABCN;
}

object overhead_line {
      phases ABCN;
      from ROOT;
      to transformer_meter;
      length 25;
      configuration OHL_config;
      name ROOT_LINE;
}

object meter {
     name transformer_meter;
     phases ABCN;
     nominal_voltage 7200;
}

object transformer_configuration {
     name default_transformer_A;
     connect_type SINGLE_PHASE_CENTER_TAPPED;
     install_type PADMOUNT;
     primary_voltage 7200 V;
     secondary_voltage 124 V;
     power_rating 250.0;
     powerA_rating 250.0;
     impedance 0.015+0.0675j;
     shunt_impedance 454.5455+2045.4548j;
}

object transformer {
     name center_tap_transformer_A;
     phases AS;
     from transformer_meter;
     to triplex_node_A;
     configuration default_transformer_A;
}

object triplex_meter {
     name triplex_node_A;
     phases AS;
     nominal_voltage 124.00;
     bill_mode UNIFORM;
     price 0;
     bill_day 1;
}

object triplex_line_conductor {
      name 1/0 AA triplex;
      resistance 0.97;
      geometric_mean_radius 0.0111;
}

object triplex_line_configuration {
      name TLCFG;
      conductor_1 1/0 AA triplex;
      conductor_2 1/0 AA triplex;
      conductor_N 1/0 AA triplex;
      insulation_thickness 0.08;
      diameter 0.368;
}

object triplex_line {
     from triplex_node_A;
     to tpm_rtp_A1;
     phases AS;
     length 1;
     configuration TLCFG;
}

object triplex_meter {
     nominal_voltage 124;
     phases AS;
     name tpm_rtp_A1;
     groupid rtp_meter;
	 power_1 3;
	 power_2 3;
	 power_12 4;
object recorder {
		parent tpm_rtp_A1;
		limit 1000000;
		interval 1800;
		file stub_bills.csv; 
		property monthly_bill;
	};
object double_assert{
		name auto_double_assert_155;
		parent tpm_rtp_A1;
		target monthly_bill; 
		within .1; 
object player {
          parent auto_double_assert_155;
          file ../stub_nofee_bill_value.player;
          loop 1;
          property value;
		};
	};
     bill_mode HOURLY;
     power_market STUB2;
     bill_day 1;
}
